  Page 1                                    Wed Aug 08 15:01:40 2018

  ******************************************************************
  *                           E P A N E T                          *
  *                   Hydraulic and Water Quality                  *
  *                   Analysis for Pipe Networks                   *
  *                         Version 2.00.12                        *
  ******************************************************************
  
  Analysis begun Wed Aug 08 15:01:40 2018

  Analysis ended Wed Aug 08 15:01:40 2018
